CM Thema1
CE
GW	1	9	 0.000000	 0.000000	 0.006250	 0.027063	 0.015625	 0.060377	 0.000625
GW	2	9	 0.000000	 0.000000	 0.006250	 0.000000	 0.031250	 0.060377	 0.000625
GW	3	9	 0.000000	 0.000000	 0.006250	-0.027063	 0.015625	 0.060377	 0.000625
GW	4	9	 0.000000	 0.000000	 0.006250	-0.027063	-0.015625	 0.060377	 0.000625
GW	5	9	 0.000000	 0.000000	 0.006250	-0.000000	-0.031250	 0.060377	 0.000625
GW	6	9	 0.000000	 0.000000	 0.006250	 0.027063	-0.015625	 0.060377	 0.000625
GW	7	9	 0.000000	 0.000000	-0.006250	 0.027063	 0.015625	-0.060377	 0.000625
GW	8	9	 0.000000	 0.000000	-0.006250	 0.000000	 0.031250	-0.060377	 0.000625
GW	9	9	 0.000000	 0.000000	-0.006250	-0.027063	 0.015625	-0.060377	 0.000625
GW	10	9	 0.000000	 0.000000	-0.006250	-0.027063	-0.015625	-0.060377	 0.000625
GW	11	9	 0.000000	 0.000000	-0.006250	-0.000000	-0.031250	-0.060377	 0.000625
GW	12	9	 0.000000	 0.000000	-0.006250	 0.027063	-0.015625	-0.060377	 0.000625
GW	13	1	 0.000000	 0.000000	-0.006250	 0.000000	 0.000000	 0.006250	 0.00062500
EX	0	13	 1	 0.000000	 1.000000	 0.000000	 0.000000	 0.000000	