CM 
CE
GH	1	100	0.125	1.875	0.079577	0.079577	0.079577	0.079577	0.0025
GW	100	5	0	0	0	.05	0	0	.001311
GW	101	5	.05	0	0	.1	0	0	.002932
GW	102	5	.1	0	0	.15	0	0	.003896
GW	103	5	.15	0	0	.2	0	0	.004535
GW	104	5	.2	0	0	.25	0	0	.00499
GW	105	5	0	0	0	.043301	.025	0	.001311
GW	106	5	.043301	.025	0	.086603	.05	0	.002932
GW	107	5	.086603	.05	0	.129904	.075	0	.003896
GW	108	5	.129904	.075	0	.173205	.1	0	.004535
GW	109	5	.173205	.1	0	.216506	.125	0	.00499
GW	110	5	0	0	0	.025	.043301	0	.001311
GW	111	5	.025	.043301	0	.05	.086603	0	.002932
GW	112	5	.05	.086603	0	.075	.129904	0	.003896
GW	113	5	.075	.129904	0	.1	.173205	0	.004535
GW	114	5	.1	.173205	0	.125	.216506	0	.00499
GW	115	5	0	0	0	0	.05	0	.001311
GW	116	5	0	.05	0	0	.1	0	.002932
GW	117	5	0	.1	0	0	.15	0	.003896
GW	118	5	0	.15	0	0	.2	0	.004535
GW	119	5	0	.2	0	0	.25	0	.00499
GW	120	5	0	0	0	-.025	.043301	0	.001311
GW	121	5	-.025	.043301	0	-.05	.086603	0	.002932
GW	122	5	-.05	.086603	0	-.075	.129904	0	.003896
GW	123	5	-.075	.129904	0	-.1	.173205	0	.004535
GW	124	5	-.1	.173205	0	-.125	.216506	0	.00499
GW	125	5	0	0	0	-.043301	.025	0	.001311
GW	126	5	-.043301	.025	0	-.086603	.05	0	.002932
GW	127	5	-.086603	.05	0	-.129904	.075	0	.003896
GW	128	5	-.129904	.075	0	-.173205	.1	0	.004535
GW	129	5	-.173205	.1	0	-.216506	.125	0	.00499
GW	130	5	0	0	0	-.05	0	0	.001311
GW	131	5	-.05	0	0	-.1	0	0	.002932
GW	132	5	-.1	0	0	-.15	0	0	.003896
GW	133	5	-.15	0	0	-.2	0	0	.004535
GW	134	5	-.2	0	0	-.25	0	0	.00499
GW	135	5	0	0	0	-.043301	-.025	0	.001311
GW	136	5	-.043301	-.025	0	-.086603	-.05	0	.002932
GW	137	5	-.086603	-.05	0	-.129904	-.075	0	.003896
GW	138	5	-.129904	-.075	0	-.173205	-.1	0	.004535
GW	139	5	-.173205	-.1	0	-.216506	-.125	0	.00499
GW	140	5	0	0	0	-.025	-.043301	0	.001311
GW	141	5	-.025	-.043301	0	-.05	-.086603	0	.002932
GW	142	5	-.05	-.086603	0	-.075	-.129904	0	.003896
GW	143	5	-.075	-.129904	0	-.1	-.173205	0	.004535
GW	144	5	-.1	-.173205	0	-.125	-.216506	0	.00499
GW	145	5	0	0	0	0	-.05	0	.001311
GW	146	5	0	-.05	0	0	-.1	0	.002932
GW	147	5	0	-.1	0	0	-.15	0	.003896
GW	148	5	0	-.15	0	0	-.2	0	.004535
GW	149	5	0	-.2	0	0	-.25	0	.00499
GW	150	5	0	0	0	.025	-.043301	0	.001311
GW	151	5	.025	-.043301	0	.05	-.086603	0	.002932
GW	152	5	.05	-.086603	0	.075	-.129904	0	.003896
GW	153	5	.075	-.129904	0	.1	-.173205	0	.004535
GW	154	5	.1	-.173205	0	.125	-.216506	0	.00499
GW	155	5	0	0	0	.043301	-.025	0	.001311
GW	156	5	.043301	-.025	0	.086603	-.05	0	.002932
GW	157	5	.086603	-.05	0	.129904	-.075	0	.003896
GW	158	5	.129904	-.075	0	.173205	-.1	0	.004535
GW	159	5	.173205	-.1	0	.216506	-.125	0	.00499
GW	160	3	.05	0	0	.043301	.025	0	.001311
GW	161	3	.043301	.025	0	.025	.043301	0	.001311
GW	162	3	.025	.043301	0	0	.05	0	.001311
GW	163	3	0	.05	0	-.025	.043301	0	.001311
GW	164	3	-.025	.043301	0	-.043301	.025	0	.001311
GW	165	3	-.043301	.025	0	-.05	0	0	.001311
GW	166	3	-.05	0	0	-.043301	-.025	0	.001311
GW	167	3	-.043301	-.025	0	-.025	-.043301	0	.001311
GW	168	3	-.025	-.043301	0	0	-.05	0	.001311
GW	169	3	0	-.05	0	.025	-.043301	0	.001311
GW	170	3	.025	-.043301	0	.043301	-.025	0	.001311
GW	171	3	.043301	-.025	0	.05	0	0	.001311
GW	172	5	.1	0	0	.086603	.05	0	.002932
GW	173	5	.086603	.05	0	.05	.086603	0	.002932
GW	174	5	.05	.086603	0	0	.1	0	.002932
GW	175	5	0	.1	0	-.05	.086603	0	.002932
GW	176	5	-.05	.086603	0	-.086603	.05	0	.002932
GW	177	5	-.086603	.05	0	-.1	0	0	.002932
GW	178	5	-.1	0	0	-.086603	-.05	0	.002932
GW	179	5	-.086603	-.05	0	-.05	-.086603	0	.002932
GW	180	5	-.05	-.086603	0	0	-.1	0	.002932
GW	181	5	0	-.1	0	.05	-.086603	0	.002932
GW	182	5	.05	-.086603	0	.086603	-.05	0	.002932
GW	183	5	.086603	-.05	0	.1	0	0	.002932
GW	184	8	.15	0	0	.129904	.075	0	.003896
GW	185	8	.129904	.075	0	.075	.129904	0	.003896
GW	186	8	.075	.129904	0	0	.15	0	.003896
GW	187	8	0	.15	0	-.075	.129904	0	.003896
GW	188	8	-.075	.129904	0	-.129904	.075	0	.003896
GW	189	8	-.129904	.075	0	-.15	0	0	.003896
GW	190	8	-.15	0	0	-.129904	-.075	0	.003896
GW	191	8	-.129904	-.075	0	-.075	-.129904	0	.003896
GW	192	8	-.075	-.129904	0	0	-.15	0	.003896
GW	193	8	0	-.15	0	.075	-.129904	0	.003896
GW	194	8	.075	-.129904	0	.129904	-.075	0	.003896
GW	195	8	.129904	-.075	0	.15	0	0	.003896
GW	196	10	.2	0	0	.173205	.1	0	.004535
GW	197	10	.173205	.1	0	.1	.173205	0	.004535
GW	198	10	.1	.173205	0	0	.2	0	.004535
GW	199	10	0	.2	0	-.1	.173205	0	.004535
GW	200	10	-.1	.173205	0	-.173205	.1	0	.004535
GW	201	10	-.173205	.1	0	-.2	0	0	.004535
GW	202	10	-.2	0	0	-.173205	-.1	0	.004535
GW	203	10	-.173205	-.1	0	-.1	-.173205	0	.004535
GW	204	10	-.1	-.173205	0	0	-.2	0	.004535
GW	205	10	0	-.2	0	.1	-.173205	0	.004535
GW	206	10	.1	-.173205	0	.173205	-.1	0	.004535
GW	207	10	.173205	-.1	0	.2	0	0	.004535
GW	208	13	.25	0	0	.216506	.125	0	.00499
GW	209	13	.216506	.125	0	.125	.216506	0	.00499
GW	210	13	.125	.216506	0	0	.25	0	.00499
GW	211	13	0	.25	0	-.125	.216506	0	.00499
GW	212	13	-.125	.216506	0	-.216506	.125	0	.00499
GW	213	13	-.216506	.125	0	-.25	0	0	.00499
GW	214	13	-.25	0	0	-.216506	-.125	0	.00499
GW	215	13	-.216506	-.125	0	-.125	-.216506	0	.00499
GW	216	13	-.125	-.216506	0	0	-.25	0	.00499
GW	217	13	0	-.25	0	.125	-.216506	0	.00499
GW	218	13	.125	-.216506	0	.216506	-.125	0	.00499
GW	219	13	.216506	-.125	0	.25	0	0	.00499
GE	0
GN	-1
EK
EX	0	1	1	0	1	0	0
FR	0	104	0	0	180	10
EN
